data_image0
_chemical_formula_structural       OH2OH2OH2OH2OH2OH2OH2OH2OH2OH2OH2OH2OH2OH2OH2OH2OH2OH2OH2OH2OH2OH2OH2OH2OH2OH2OH2OH2OH2OH2OH2OH2OH2OH2OH2OH2OH2OH2OH2OH2OH2OH2OH2OH2OH2OH2OH2OH2OH2OH2OH2OH2OH2OH2OH2OH2OH2OH2OH2OH2OH2OH2OH2OH2OH2OH2OH2OH2OH2OH2OH2OH2OH2OH2OH2OH2OH2OH2OH2OH2OH2OH2OH2OH2OH2OH2OH2OH2OH2OH2OH2OH2OH2OH2OH2OH2OH2OH2OH2OH2OH2OH2OH2OH2OH2OH2OH2OH2OH2OH2OH2OH2OH2OH2OH2OH2OH2OH2OH2OH2OH2OH2OH2OH2OH2
_chemical_formula_sum              "O125 H250"
_cell_length_a       15.536
_cell_length_b       15.536
_cell_length_c       15.536
_cell_angle_alpha    90
_cell_angle_beta     90
_cell_angle_gamma    90

_space_group_name_H-M_alt    "P 1"
_space_group_IT_number       1

loop_
  _space_group_symop_operation_xyz
  'x, y, z'

loop_
  _atom_site_type_symbol
  _atom_site_label
  _atom_site_symmetry_multiplicity
  _atom_site_fract_x
  _atom_site_fract_y
  _atom_site_fract_z
  _atom_site_occupancy
  O   O1        1.0  0.12074  0.11938  0.10566  1.0000
  H   H1        1.0  0.08279  0.15748  0.14092  1.0000
  H   H2        1.0  0.09189  0.10547  0.04860  1.0000
  O   O2        1.0  0.50375  0.16178  0.95145  1.0000
  H   H3        1.0  0.54300  0.21137  0.95507  1.0000
  H   H4        1.0  0.52837  0.10624  0.93585  1.0000
  O   O3        1.0  0.19683  0.39919  0.70651  1.0000
  H   H5        1.0  0.22262  0.44666  0.67756  1.0000
  H   H6        1.0  0.24422  0.37791  0.74070  1.0000
  O   O4        1.0  0.29638  0.95831  0.92449  1.0000
  H   H7        1.0  0.23160  0.96377  0.92938  1.0000
  H   H8        1.0  0.31703  1.01338  0.90036  1.0000
  O   O5        1.0  0.52355  0.62033  0.31242  1.0000
  H   H9        1.0  0.58989  0.60759  0.31422  1.0000
  H   H10       1.0  0.51475  0.67824  0.33921  1.0000
  O   O6        1.0  0.09988  0.31717  0.53320  1.0000
  H   H11       1.0  0.09551  0.37706  0.55446  1.0000
  H   H12       1.0  0.07652  0.31070  0.47561  1.0000
  O   O7        1.0  0.26945  0.40786  0.44969  1.0000
  H   H13       1.0  0.30640  0.36036  0.45588  1.0000
  H   H14       1.0  0.31037  0.44942  0.41345  1.0000
  O   O8        1.0  0.39825  0.66307  0.15201  1.0000
  H   H15       1.0  0.41534  0.62282  0.19815  1.0000
  H   H16       1.0  0.34056  0.69224  0.16678  1.0000
  O   O9        1.0  0.34939  0.16211  0.87502  1.0000
  H   H17       1.0  0.30291  0.17806  0.91577  1.0000
  H   H18       1.0  0.40336  0.15608  0.90830  1.0000
  O   O10       1.0  0.87805  0.23942  0.52917  1.0000
  H   H19       1.0  0.90477  0.25407  0.58416  1.0000
  H   H20       1.0  0.84826  0.19093  0.55302  1.0000
  O   O11       1.0  0.95325  0.94817  0.25943  1.0000
  H   H21       1.0  0.89427  0.93804  0.27435  1.0000
  H   H22       1.0  0.96005  0.97061  0.20140  1.0000
  O   O12       1.0  0.49692  0.82567  0.95995  1.0000
  H   H23       1.0  0.43146  0.82016  0.96248  1.0000
  H   H24       1.0  0.52151  0.78091  0.91633  1.0000
  O   O13       1.0  0.39879  0.30071  0.58555  1.0000
  H   H25       1.0  0.34239  0.27895  0.55600  1.0000
  H   H26       1.0  0.39063  0.36478  0.58746  1.0000
  O   O14       1.0  0.84556  0.88067  0.01633  1.0000
  H   H27       1.0  0.84759  0.83678  0.06211  1.0000
  H   H28       1.0  0.86374  0.93405  0.04848  1.0000
  O   O15       1.0  0.64905  0.36613  0.58400  1.0000
  H   H29       1.0  0.68653  0.37794  0.53413  1.0000
  H   H30       1.0  0.61850  0.31562  0.56568  1.0000
  O   O16       1.0  0.27630  0.80540  0.22714  1.0000
  H   H31       1.0  0.24263  0.79022  0.17252  1.0000
  H   H32       1.0  0.26255  0.75798  0.26635  1.0000
  O   O17       1.0  0.54936  0.48456  0.49385  1.0000
  H   H33       1.0  0.57406  0.44592  0.53409  1.0000
  H   H34       1.0  0.53177  0.45417  0.44323  1.0000
  O   O18       1.0  0.70150  0.76043  0.54504  1.0000
  H   H35       1.0  0.71337  0.78709  0.60074  1.0000
  H   H36       1.0  0.66165  0.71486  0.55803  1.0000
  O   O19       1.0  0.01235  0.36864  0.87608  1.0000
  H   H37       1.0  0.00770  0.35916  0.94139  1.0000
  H   H38       1.0  -0.03422  0.32904  0.85685  1.0000
  O   O20       1.0  0.83789  0.27631  0.06471  1.0000
  H   H39       1.0  0.89709  0.28955  0.04863  1.0000
  H   H40       1.0  0.84259  0.23721  0.11514  1.0000
  O   O21       1.0  0.69435  0.74005  0.83707  1.0000
  H   H41       1.0  0.74823  0.71133  0.85501  1.0000
  H   H42       1.0  0.70745  0.77911  0.78439  1.0000
  O   O22       1.0  0.21507  0.04420  0.62492  1.0000
  H   H43       1.0  0.25078  0.02166  0.57726  1.0000
  H   H44       1.0  0.24108  0.09995  0.63502  1.0000
  O   O23       1.0  0.35579  0.65496  0.85159  1.0000
  H   H45       1.0  0.41327  0.66160  0.87300  1.0000
  H   H46       1.0  0.33516  0.59505  0.86625  1.0000
  O   O24       1.0  0.00219  0.22428  0.40212  1.0000
  H   H47       1.0  0.00010  0.17892  0.44452  1.0000
  H   H48       1.0  0.02738  0.20011  0.34830  1.0000
  O   O25       1.0  0.00143  0.75584  0.71007  1.0000
  H   H49       1.0  -0.01254  0.69796  0.73448  1.0000
  H   H50       1.0  0.03109  0.79918  0.74516  1.0000
  O   O26       1.0  0.49599  0.16246  0.36330  1.0000
  H   H51       1.0  0.44360  0.19679  0.35099  1.0000
  H   H52       1.0  0.53787  0.17237  0.32086  1.0000
  O   O27       1.0  0.28663  0.90293  0.73303  1.0000
  H   H53       1.0  0.29560  0.94129  0.78301  1.0000
  H   H54       1.0  0.25445  0.93283  0.68726  1.0000
  O   O28       1.0  0.13311  0.86688  0.59977  1.0000
  H   H55       1.0  0.08246  0.84642  0.56397  1.0000
  H   H56       1.0  0.18154  0.83720  0.56593  1.0000
  O   O29       1.0  0.73469  0.41201  0.02925  1.0000
  H   H57       1.0  0.78253  0.36965  0.04112  1.0000
  H   H58       1.0  0.74816  0.44354  -0.02208  1.0000
  O   O30       1.0  0.17978  0.75081  0.07240  1.0000
  H   H59       1.0  0.23057  0.74843  0.02926  1.0000
  H   H60       1.0  0.14771  0.69525  0.07681  1.0000
  O   O31       1.0  0.32814  0.33241  0.81217  1.0000
  H   H61       1.0  0.34729  0.27650  0.83665  1.0000
  H   H62       1.0  0.38107  0.36655  0.79608  1.0000
  O   O32       1.0  0.54891  0.23431  0.52529  1.0000
  H   H63       1.0  0.48861  0.25002  0.53611  1.0000
  H   H64       1.0  0.54664  0.21408  0.46477  1.0000
  O   O33       1.0  0.17679  0.26920  0.27186  1.0000
  H   H65       1.0  0.16147  0.30401  0.32187  1.0000
  H   H66       1.0  0.18040  0.30803  0.22635  1.0000
  O   O34       1.0  0.56531  0.63811  0.59281  1.0000
  H   H67       1.0  0.50576  0.65896  0.61104  1.0000
  H   H68       1.0  0.55051  0.58842  0.55587  1.0000
  O   O35       1.0  0.62237  0.30926  0.94845  1.0000
  H   H69       1.0  0.66176  0.26146  0.93223  1.0000
  H   H70       1.0  0.65889  0.35336  0.97467  1.0000
  O   O36       1.0  0.13750  0.65657  0.62536  1.0000
  H   H71       1.0  0.08759  0.68544  0.64401  1.0000
  H   H72       1.0  0.18840  0.68095  0.65624  1.0000
  O   O37       1.0  0.57418  0.01163  0.87895  1.0000
  H   H73       1.0  0.52747  -0.02520  0.89319  1.0000
  H   H74       1.0  0.62496  -0.01488  0.90685  1.0000
  O   O38       1.0  0.60047  0.92305  0.33113  1.0000
  H   H75       1.0  0.55725  0.95185  0.36812  1.0000
  H   H76       1.0  0.59549  0.92832  0.26880  1.0000
  O   O39       1.0  0.90236  0.47082  0.62560  1.0000
  H   H77       1.0  0.85922  0.52037  0.61289  1.0000
  H   H78       1.0  0.87341  0.42092  0.65347  1.0000
  O   O40       1.0  0.24984  0.67814  0.35808  1.0000
  H   H79       1.0  0.19019  0.67028  0.38156  1.0000
  H   H80       1.0  0.27516  0.71379  0.40518  1.0000
  O   O41       1.0  0.03729  0.16475  0.24561  1.0000
  H   H81       1.0  0.06444  0.10970  0.24498  1.0000
  H   H82       1.0  0.08376  0.20848  0.25068  1.0000
  O   O42       1.0  0.73960  0.78202  0.25902  1.0000
  H   H83       1.0  0.78999  0.77193  0.21952  1.0000
  H   H84       1.0  0.75288  0.82428  0.30331  1.0000
  O   O43       1.0  0.61957  0.07763  0.51973  1.0000
  H   H85       1.0  0.58678  0.03935  0.56046  1.0000
  H   H86       1.0  0.58937  0.13151  0.52526  1.0000
  O   O44       1.0  0.19655  0.35380  0.08742  1.0000
  H   H87       1.0  0.21744  0.30784  0.04595  1.0000
  H   H88       1.0  0.25134  0.37827  0.10932  1.0000
  O   O45       1.0  0.91609  0.91313  0.66753  1.0000
  H   H89       1.0  0.96331  0.95372  0.65132  1.0000
  H   H90       1.0  0.93777  0.85268  0.67100  1.0000
  O   O46       1.0  0.67760  0.51958  0.69557  1.0000
  H   H91       1.0  0.66264  0.46008  0.66927  1.0000
  H   H92       1.0  0.63179  0.55750  0.67085  1.0000
  O   O47       1.0  0.00628  0.78611  0.96379  1.0000
  H   H93       1.0  -0.02581  0.82031  1.00815  1.0000
  H   H94       1.0  -0.00434  0.72701  0.97906  1.0000
  O   O48       1.0  0.83204  0.59803  0.05052  1.0000
  H   H95       1.0  0.76776  0.60359  0.05986  1.0000
  H   H96       1.0  0.83578  0.61516  -0.00945  1.0000
  O   O49       1.0  0.84801  0.14739  0.20377  1.0000
  H   H97       1.0  0.80422  0.17387  0.24034  1.0000
  H   H98       1.0  0.90358  0.17241  0.22570  1.0000
  O   O50       1.0  0.56762  0.93813  0.71967  1.0000
  H   H99       1.0  0.57811  0.96928  0.77366  1.0000
  H   H100      1.0  0.52542  0.89049  0.73309  1.0000
  O   O51       1.0  0.87404  0.75901  0.14789  1.0000
  H   H101      1.0  0.86756  0.70140  0.12396  1.0000
  H   H102      1.0  0.93116  0.75339  0.17503  1.0000
  O   O52       1.0  0.20298  0.55637  0.04277  1.0000
  H   H103      1.0  0.21824  0.53221  0.09809  1.0000
  H   H104      1.0  0.24233  0.52571  0.00090  1.0000
  O   O53       1.0  0.06738  0.48968  0.57406  1.0000
  H   H105      1.0  0.08597  0.54102  0.60332  1.0000
  H   H106      1.0  0.01091  0.47533  0.59968  1.0000
  O   O54       1.0  0.54165  0.75888  0.10698  1.0000
  H   H107      1.0  0.48572  0.74239  0.13227  1.0000
  H   H108      1.0  0.52748  0.77618  0.04646  1.0000
  O   O55       1.0  0.65276  0.37282  0.31702  1.0000
  H   H109      1.0  0.63655  0.32598  0.28070  1.0000
  H   H110      1.0  0.64124  0.42486  0.28390  1.0000
  O   O56       1.0  0.03047  0.61450  0.99332  1.0000
  H   H111      1.0  -0.01462  0.58156  1.02628  1.0000
  H   H112      1.0  0.08767  0.58826  1.00789  1.0000
  O   O57       1.0  0.68075  0.88024  0.95708  1.0000
  H   H113      1.0  0.73962  0.88222  0.98561  1.0000
  H   H114      1.0  0.67787  0.82857  0.91685  1.0000
  O   O58       1.0  0.46715  0.78526  0.35970  1.0000
  H   H115      1.0  0.52714  0.80619  0.36160  1.0000
  H   H116      1.0  0.44063  0.81121  0.30672  1.0000
  O   O59       1.0  0.81253  0.53921  0.39574  1.0000
  H   H117      1.0  0.80444  0.56867  0.45170  1.0000
  H   H118      1.0  0.80084  0.47683  0.40521  1.0000
  O   O60       1.0  0.03314  0.79419  0.29830  1.0000
  H   H119      1.0  0.00471  0.85213  0.28233  1.0000
  H   H120      1.0  0.05119  0.79685  0.36058  1.0000
  O   O61       1.0  0.76726  0.38473  0.45260  1.0000
  H   H121      1.0  0.74079  0.34991  0.40540  1.0000
  H   H122      1.0  0.80323  0.33531  0.48182  1.0000
  O   O62       1.0  0.13902  0.71780  0.85505  1.0000
  H   H123      1.0  0.11565  0.74000  0.91126  1.0000
  H   H124      1.0  0.15636  0.66050  0.87329  1.0000
  O   O63       1.0  0.45973  0.24170  0.11306  1.0000
  H   H125      1.0  0.45648  0.30229  0.09134  1.0000
  H   H126      1.0  0.46958  0.20785  0.06088  1.0000
  O   O64       1.0  0.52703  0.47595  0.92157  1.0000
  H   H127      1.0  0.49924  0.48466  0.97565  1.0000
  H   H128      1.0  0.55626  0.41864  0.92830  1.0000
  O   O65       1.0  0.80321  0.33875  0.70764  1.0000
  H   H129      1.0  0.83319  0.28724  0.73349  1.0000
  H   H130      1.0  0.76080  0.31686  0.66504  1.0000
  O   O66       1.0  0.02843  0.11128  0.96061  1.0000
  H   H131      1.0  0.05340  0.05588  0.94267  1.0000
  H   H132      1.0  0.05490  0.15978  0.92693  1.0000
  O   O67       1.0  0.61115  0.21103  0.21285  1.0000
  H   H133      1.0  0.57294  0.22958  0.16839  1.0000
  H   H134      1.0  0.62892  0.15192  0.20232  1.0000
  O   O68       1.0  0.01631  0.22159  0.65231  1.0000
  H   H135      1.0  0.01696  0.15822  0.63521  1.0000
  H   H136      1.0  0.05235  0.25248  0.60902  1.0000
  O   O69       1.0  0.00751  0.33884  0.05792  1.0000
  H   H137      1.0  -0.00535  0.39385  0.08702  1.0000
  H   H138      1.0  0.06791  0.33605  0.06682  1.0000
  O   O70       1.0  0.83466  0.65072  0.87938  1.0000
  H   H139      1.0  0.82087  0.59222  0.86023  1.0000
  H   H140      1.0  0.89097  0.65321  0.85663  1.0000
  O   O71       1.0  0.98401  0.51254  0.40926  1.0000
  H   H141      1.0  0.99958  0.50383  0.47386  1.0000
  H   H142      1.0  0.92178  0.53375  0.41421  1.0000
  O   O72       1.0  0.82371  0.24680  0.34057  1.0000
  H   H143      1.0  0.87776  0.26906  0.35697  1.0000
  H   H144      1.0  0.81201  0.20106  0.38656  1.0000
  O   O73       1.0  0.82848  0.07574  0.83864  1.0000
  H   H145      1.0  0.80508  0.08105  0.77937  1.0000
  H   H146      1.0  0.85151  0.01920  0.83801  1.0000
  O   O74       1.0  0.25324  0.48798  0.22334  1.0000
  H   H147      1.0  0.20400  0.46692  0.25807  1.0000
  H   H148      1.0  0.28569  0.52118  0.26762  1.0000
  O   O75       1.0  0.97442  0.59478  0.78401  1.0000
  H   H149      1.0  1.03162  0.59998  0.81119  1.0000
  H   H150      1.0  0.95944  0.54053  0.75800  1.0000
  O   O76       1.0  0.17765  0.01481  0.25788  1.0000
  H   H151      1.0  0.18208  0.04465  0.20457  1.0000
  H   H152      1.0  0.19929  -0.04060  0.24022  1.0000
  O   O77       1.0  0.60494  0.46637  0.13442  1.0000
  H   H153      1.0  0.64859  0.44484  0.09666  1.0000
  H   H154      1.0  0.62453  0.52478  0.13334  1.0000
  O   O78       1.0  0.39318  0.26289  0.27887  1.0000
  H   H155      1.0  0.33483  0.24227  0.26685  1.0000
  H   H156      1.0  0.42276  0.27614  0.22247  1.0000
  O   O79       1.0  0.00950  0.63842  0.21953  1.0000
  H   H157      1.0  0.02316  0.69970  0.24192  1.0000
  H   H158      1.0  -0.00539  0.60740  0.27263  1.0000
  O   O80       1.0  0.46522  0.00927  0.59900  1.0000
  H   H159      1.0  0.43757  0.06222  0.62771  1.0000
  H   H160      1.0  0.49355  -0.02408  0.64679  1.0000
  O   O81       1.0  0.11420  0.22613  0.85309  1.0000
  H   H161      1.0  0.13170  0.21817  0.78988  1.0000
  H   H162      1.0  0.07936  0.27771  0.85813  1.0000
  O   O82       1.0  0.90460  0.02658  0.08924  1.0000
  H   H163      1.0  0.93292  0.06465  0.04674  1.0000
  H   H164      1.0  0.86905  0.06881  0.12290  1.0000
  O   O83       1.0  0.44031  0.45915  0.76195  1.0000
  H   H165      1.0  0.43348  0.51650  0.73640  1.0000
  H   H166      1.0  0.47131  0.47318  0.81593  1.0000
  O   O84       1.0  0.78579  0.58628  0.56440  1.0000
  H   H167      1.0  0.75416  0.55874  0.61146  1.0000
  H   H168      1.0  0.75760  0.64400  0.56531  1.0000
  O   O85       1.0  0.72926  0.16529  0.95277  1.0000
  H   H169      1.0  0.76666  0.14632  0.90899  1.0000
  H   H170      1.0  0.76492  0.19207  0.99403  1.0000
  O   O86       1.0  0.77858  0.48221  0.85154  1.0000
  H   H171      1.0  0.81525  0.43904  0.82358  1.0000
  H   H172      1.0  0.72651  0.48251  0.81240  1.0000
  O   O87       1.0  0.68202  0.63755  0.14062  1.0000
  H   H173      1.0  0.68640  0.62602  0.20592  1.0000
  H   H174      1.0  0.62977  0.66501  0.12155  1.0000
  O   O88       1.0  0.53189  0.66739  0.86779  1.0000
  H   H175      1.0  0.53396  0.61374  0.90492  1.0000
  H   H176      1.0  0.59066  0.67636  0.85154  1.0000
  O   O89       1.0  0.42740  0.88499  0.21936  1.0000
  H   H177      1.0  0.45734  0.89460  0.16349  1.0000
  H   H178      1.0  0.37130  0.85855  0.21036  1.0000
  O   O90       1.0  0.09231  0.66015  0.45212  1.0000
  H   H179      1.0  0.10123  0.63788  0.50925  1.0000
  H   H180      1.0  0.05664  0.61603  0.42491  1.0000
  O   O91       1.0  0.38521  0.13571  0.68857  1.0000
  H   H181      1.0  0.38454  0.13428  0.75019  1.0000
  H   H182      1.0  0.38347  0.19666  0.67404  1.0000
  O   O92       1.0  0.35331  0.75620  0.48888  1.0000
  H   H183      1.0  0.39223  0.77070  0.44309  1.0000
  H   H184      1.0  0.33574  0.81295  0.50801  1.0000
  O   O93       1.0  0.13734  0.50232  0.82005  1.0000
  H   H185      1.0  0.15398  0.48224  0.76011  1.0000
  H   H186      1.0  0.09265  0.46243  0.83860  1.0000
  O   O94       1.0  0.49885  0.96398  0.07942  1.0000
  H   H187      1.0  0.55615  0.98490  0.09643  1.0000
  H   H188      1.0  0.50360  0.93451  0.02307  1.0000
  O   O95       1.0  0.34606  0.53726  0.36567  1.0000
  H   H189      1.0  0.31746  0.59564  0.36283  1.0000
  H   H190      1.0  0.40429  0.54760  0.34808  1.0000
  O   O96       1.0  0.92623  0.23253  0.79857  1.0000
  H   H191      1.0  0.96270  0.22566  0.74587  1.0000
  H   H192      1.0  0.91452  0.17942  0.82457  1.0000
  O   O97       1.0  0.65854  0.05922  0.13469  1.0000
  H   H193      1.0  0.68871  0.08796  0.09107  1.0000
  H   H194      1.0  0.68755  0.00349  0.13929  1.0000
  O   O98       1.0  0.27797  0.52415  0.60374  1.0000
  H   H195      1.0  0.33581  0.55434  0.60511  1.0000
  H   H196      1.0  0.27979  0.49381  0.54965  1.0000
  O   O99       1.0  0.13061  0.42943  0.35100  1.0000
  H   H197      1.0  0.07599  0.44526  0.37636  1.0000
  H   H198      1.0  0.17632  0.43707  0.39823  1.0000
  O   O100      1.0  0.33175  0.94409  0.52477  1.0000
  H   H199      1.0  0.39504  0.96133  0.53748  1.0000
  H   H200      1.0  0.32069  0.96746  0.46773  1.0000
  O   O101      1.0  0.93382  0.03050  0.45115  1.0000
  H   H201      1.0  0.87646  0.05201  0.46127  1.0000
  H   H202      1.0  0.92672  -0.00638  0.40091  1.0000
  O   O102      1.0  0.39357  0.64996  0.63379  1.0000
  H   H203      1.0  0.38289  0.68182  0.58418  1.0000
  H   H204      1.0  0.35476  0.67897  0.67877  1.0000
  O   O103      1.0  0.84374  0.88560  0.81782  1.0000
  H   H205      1.0  0.86415  0.86366  0.87603  1.0000
  H   H206      1.0  0.89259  0.89173  0.77682  1.0000
  O   O104      1.0  0.29085  0.08187  0.38040  1.0000
  H   H207      1.0  0.34473  0.04733  0.36676  1.0000
  H   H208      1.0  0.24722  0.07041  0.33296  1.0000
  O   O105      1.0  0.44410  0.98632  0.36331  1.0000
  H   H209      1.0  0.47666  1.04171  0.36598  1.0000
  H   H210      1.0  0.45140  0.96339  0.30516  1.0000
  O   O106      1.0  0.80052  0.09362  0.63770  1.0000
  H   H211      1.0  0.75250  0.07185  0.60255  1.0000
  H   H212      1.0  0.84674  0.05087  0.63128  1.0000
  O   O107      1.0  0.43215  0.80887  0.76143  1.0000
  H   H213      1.0  0.42379  0.75320  0.72584  1.0000
  H   H214      1.0  0.37804  0.84087  0.74430  1.0000
  O   O108      1.0  0.43734  0.43046  0.08556  1.0000
  H   H215      1.0  0.39522  0.46965  0.11292  1.0000
  H   H216      1.0  0.49239  0.43555  0.11460  1.0000
  O   O109      1.0  0.68538  0.89043  0.13963  1.0000
  H   H217      1.0  0.70482  0.84333  0.18004  1.0000
  H   H218      1.0  0.65168  0.85847  0.09525  1.0000
  O   O110      1.0  0.25502  0.23491  0.50832  1.0000
  H   H219      1.0  0.24584  0.18450  0.47250  1.0000
  H   H220      1.0  0.19807  0.26146  0.51833  1.0000
  O   O111      1.0  0.69441  0.62216  0.31516  1.0000
  H   H221      1.0  0.71141  0.68026  0.31746  1.0000
  H   H222      1.0  0.73936  0.59180  0.35318  1.0000
  O   O112      1.0  0.76786  0.09585  0.44335  1.0000
  H   H223      1.0  0.77245  0.06608  0.38888  1.0000
  H   H224      1.0  0.71014  0.07893  0.46581  1.0000
  O   O113      1.0  0.11130  0.86688  0.78073  1.0000
  H   H225      1.0  0.14625  0.81669  0.80402  1.0000
  H   H226      1.0  0.11943  0.86643  0.71706  1.0000
  O   O114      1.0  0.35470  0.04266  0.13611  1.0000
  H   H227      1.0  0.33096  0.04260  0.07750  1.0000
  H   H228      1.0  0.41159  0.01934  0.13743  1.0000
  O   O115      1.0  0.72215  0.84324  0.69901  1.0000
  H   H229      1.0  0.66717  0.87774  0.70166  1.0000
  H   H230      1.0  0.77045  0.87262  0.73676  1.0000
  O   O116      1.0  0.02065  0.81558  0.47465  1.0000
  H   H231      1.0  -0.04044  0.82978  0.47706  1.0000
  H   H232      1.0  0.02555  0.75233  0.47274  1.0000
  O   O117      1.0  0.29359  0.49850  0.89664  1.0000
  H   H233      1.0  0.24030  0.50121  0.86578  1.0000
  H   H234      1.0  0.31618  0.43951  0.88753  1.0000
  O   O118      1.0  0.03208  0.05677  0.59768  1.0000
  H   H235      1.0  0.09216  0.03365  0.59568  1.0000
  H   H236      1.0  0.00807  0.05455  0.53658  1.0000
  O   O119      1.0  0.96345  0.49568  0.10822  1.0000
  H   H237      1.0  0.99577  0.53318  0.14918  1.0000
  H   H238      1.0  0.90803  0.52400  0.10174  1.0000
  O   O120      1.0  0.26127  0.72124  0.72029  1.0000
  H   H239      1.0  0.28755  0.70447  0.77587  1.0000
  H   H240      1.0  0.27225  0.78405  0.73103  1.0000
  O   O121      1.0  0.22719  0.18499  0.99015  1.0000
  H   H241      1.0  0.18553  0.17265  1.04133  1.0000
  H   H242      1.0  0.18770  0.20111  0.94302  1.0000
  O   O122      1.0  0.77315  0.92545  0.35350  1.0000
  H   H243      1.0  0.71005  0.92207  0.35700  1.0000
  H   H244      1.0  0.79851  0.90960  0.40823  1.0000
  O   O123      1.0  0.32707  0.79903  0.97253  1.0000
  H   H245      1.0  0.31218  0.85560  0.94800  1.0000
  H   H246      1.0  0.32338  0.75849  0.92575  1.0000
  O   O124      1.0  0.83647  0.88352  0.50400  1.0000
  H   H247      1.0  0.85902  0.90034  0.56456  1.0000
  H   H248      1.0  0.78909  0.84361  0.51525  1.0000
  O   O125      1.0  0.11331  0.94927  0.93738  1.0000
  H   H249      1.0  0.09224  0.90514  0.97730  1.0000
  H   H250      1.0  0.10464  0.92309  0.87757  1.0000
